analytic_data/folder1/output_current_1.csv
# output_current_1.csv run at 2000-01-01 00:01:00 UTC on 907 links
link_name,currA_mag,currA_angle,currB_mag,currB_angle,currC_mag,currC_angle
Source_Impedance,8.361808,-0.144481,8.161539,4.380021,10.537386,2.132411
TR1,8.361808,-0.144481,8.161539,4.380021,10.537386,2.132411
LINE1,301.641317,-0.563429,163.077617,3.848882,247.381098,1.578870
LINE2,301.641317,-0.563429,163.077617,3.848882,247.381098,1.578870
LINE3,301.641317,-0.563429,163.077617,3.848882,247.381098,1.578870
LINE4,301.641317,-0.563429,163.077617,3.848882,247.381098,1.578870
LINE5,301.641317,-0.563429,163.077617,3.848882,247.381098,1.578870
LINE6,301.641317,-0.563429,163.077617,3.848882,247.381098,1.578870
LINE7,301.641317,-0.563429,163.077617,3.848882,247.381098,1.578870
LINE8,301.641317,-0.563429,163.077617,3.848882,247.381098,1.578870
LINE9,301.641317,-0.563429,163.077617,3.848882,247.381098,1.578870
LINE10,301.641317,-0.563429,163.077617,3.848882,247.381098,1.578870
LINE11,301.641317,-0.563429,163.077617,3.848882,247.381098,1.578870
LINE12,301.641317,-0.563429,163.077617,3.848882,247.381098,1.578870
LINE13,301.641317,-0.563429,163.077617,3.848882,247.381098,1.578870
LINE14,301.641317,-0.563429,163.077617,3.848882,247.381098,1.578870
LINE15,0.000000,-0.179929,0.000000,3.281809,0.000000,4.703081
LINE16,301.641317,-0.563429,163.077617,3.848882,247.381098,1.578870
LINE17,0.000000,-0.024932,0.000000,1.545864,0.000000,3.116661
LINE18,301.641317,-0.563429,163.077617,3.848882,247.381098,1.578870
LINE19,0.000000,0.220047,0.000000,0.220047,0.000000,4.687457
LINE20,301.641317,-0.563429,163.077617,3.848882,247.381098,1.578870
LINE21,0.000000,0.296819,0.000000,-0.024932,0.000000,4.695269
LINE22,301.641317,-0.563429,163.077617,3.848882,247.381098,1.578870
LINE23,0.000000,0.074737,0.000000,0.000000,0.000000,4.710890
LINE24,301.641317,-0.563429,163.077617,3.848882,247.381098,1.578870
LINE25,0.000000,0.140217,0.000000,4.687457,0.000000,-1.548888
LINE26,0.382488,-0.857592,0.000000,3.422210,0.000000,1.544378
LINE27,301.275279,-0.563061,163.077617,3.848882,247.381098,1.578870
LINE28,0.000000,0.058209,0.000000,3.902059,0.000000,-1.564488
LINE29,0.152995,-0.857593,0.000000,1.764767,0.000000,1.627648
LINE30,0.229493,-0.857592,0.000000,3.434926,0.000000,1.541520
LINE31,301.275279,-0.563061,163.077617,3.848882,247.381098,1.578870
LINE32,0.000000,-0.129809,0.000000,3.727387,0.000000,1.700861
LINE33,0.152995,-0.857593,0.000000,-0.241491,0.000000,1.725388
LINE34,0.229493,-0.857592,0.000000,3.386143,0.000000,1.436656
LINE35,0.000000,1.317020,0.402514,3.332443,0.000000,1.617476
LINE36,301.275279,-0.563061,162.727719,3.850104,247.381098,1.578870
LINE37,0.000000,-0.083688,0.000000,3.902059,0.000000,3.116661
LINE38,0.229493,-0.857592,0.000000,3.824686,0.000000,1.553741
LINE39,0.000000,0.957678,0.218028,3.332443,0.000000,1.606957
LINE40,0.000000,2.832409,0.184485,3.332443,0.000000,1.573933
LINE41,301.275279,-0.563061,162.727719,3.850104,247.381098,1.578870
LINE42,0.000000,0.115064,0.000000,-1.218749,0.000000,1.766541
LINE43,0.000000,0.099423,0.000000,3.902059,0.000000,-1.533309
LINE44,0.229493,-0.857592,0.000000,3.411759,0.000000,1.540009
LINE45,0.000000,1.707197,0.218028,3.332443,0.000000,-1.557893
LINE46,0.000000,-0.009880,0.184485,3.332443,0.000000,1.576102
LINE47,301.275279,-0.563061,162.727719,3.850104,247.381098,1.578870
LINE48,0.000000,0.848739,0.000000,-1.169866,0.000000,1.532375
LINE49,0.000000,-0.190081,0.000000,0.000000,0.000000,-0.024932
LINE50,0.229493,-0.857592,0.000000,0.165318,0.000000,4.620617
LINE51,0.000000,2.016649,0.218028,3.332443,0.000000,-1.561755
LINE52,301.275279,-0.563061,162.727719,3.850104,247.381098,1.578870
LINE53,0.000000,3.556790,0.000000,-0.268365,0.000000,4.195698
LINE54,0.000000,-0.365075,0.000000,-1.066153,0.000000,1.578936
LINE55,0.000000,-0.222327,0.000000,3.116661,0.000000,-1.513880
LINE56,0.229493,-0.857592,0.000000,-0.381809,0.000000,4.688358
LINE57,0.000000,2.184604,0.218028,3.332443,0.000000,-1.330824
LINE58,301.275279,-0.563061,162.727719,3.850104,247.381098,1.578870
LINE59,0.000000,3.414234,0.000000,0.417192,0.000000,4.697194
LINE60,0.000000,-0.959643,0.000000,-1.308734,0.000000,1.482244
LINE61,0.000000,-0.316389,0.000000,3.116661,0.000000,-1.525531
LINE62,0.229493,-0.857592,0.000000,0.640258,0.000000,1.529943
LINE63,0.000000,2.409878,0.218028,3.332443,0.000000,-1.489570
LINE64,90.490054,0.955599,162.727719,3.850104,247.381098,1.578870
LINE65,310.022234,-0.858841,0.000000,0.403034,0.000000,0.972385
LINE66,0.000000,3.518334,0.000000,2.631330,0.000000,4.072098
LINE67,0.000000,-0.399538,0.000000,-1.365403,0.000000,1.589275
LINE68,0.000000,-0.190081,0.000000,3.116661,0.000000,-1.541095
LINE69,0.229493,-0.857592,0.000000,0.037171,0.000000,0.658869
LINE70,0.000000,2.481751,0.218028,3.332443,0.000000,-1.447955
LINE71,90.490054,0.955599,162.727719,3.850104,247.381098,1.578870
LINE72,221.556689,-0.858660,0.000000,-0.547873,0.000000,1.416205
LINE73,88.465558,-0.859292,0.000000,-0.154107,0.000000,1.496709
LINE74,0.000000,-0.506483,0.000000,2.896622,0.000000,2.322441
LINE75,0.000000,-0.149441,0.000000,4.568096,0.000000,1.491473
LINE76,0.000000,-0.152802,0.000000,3.361639,0.000000,-1.539635
LINE77,0.000000,1.240560,0.218028,3.332443,0.000000,-1.343675
LINE78,90.490054,0.955599,162.727719,3.850104,247.381098,1.578870
LINE79,0.000000,-0.071593,0.000000,2.811056,0.000000,2.060934
LINE80,0.000000,-0.523952,0.000000,4.537619,0.000000,1.509262
LINE81,0.000000,-0.128724,0.000000,3.281809,0.000000,-1.542307
LINE82,0.000000,0.201745,0.218028,3.332443,0.000000,-0.728035
LINE83,90.490054,0.955599,162.727719,3.850104,247.381098,1.578870
LINE84,0.000000,0.100896,0.000000,3.038159,0.000000,2.368002
LINE85,0.000000,-0.449743,0.000000,4.609139,0.000000,1.529518
LINE86,0.000000,-0.141074,0.000000,3.302009,0.000000,-1.541407
LINE87,90.490054,0.955599,162.727719,3.850104,247.381098,1.578870
LINE88,0.000000,3.659624,0.000000,2.154381,0.000000,4.346158
LINE89,0.000000,-0.426822,0.000000,4.662499,0.000000,1.563967
LINE90,0.000000,-0.108073,0.000000,3.438411,0.000000,-1.539537
LINE91,90.490054,0.955599,162.727719,3.850104,247.381098,1.578870
LINE92,0.000000,-0.992904,0.000000,-0.992904,0.000000,1.436953
LINE93,0.000000,-0.269911,0.000000,3.361639,0.000000,-1.525531
LINE94,90.490054,0.955599,162.727719,3.850104,247.381098,1.578870
LINE95,0.000000,-0.598122,0.000000,-0.502571,0.000000,1.752455
LINE96,0.000000,0.438716,0.000000,0.438716,0.000000,4.703081
LINE97,90.490054,0.955599,162.727719,3.850104,247.381098,1.578870
LINE98,0.000000,0.155983,0.000000,-0.173968,0.000000,4.209064
LINE99,0.000000,3.116661,0.000000,1.545864,0.000000,-0.024932
LINE100,90.490054,0.955599,162.727719,3.850104,247.381098,1.578870
LINE101,0.000000,0.765702,0.000000,-1.277607,0.000000,4.138694
LINE102,0.000000,0.000000,0.000000,0.000000,0.000000,0.000000
LINE103,0.256016,-0.867720,0.678895,3.330775,0.583195,1.244980
LINE104,90.554359,0.958336,162.138685,3.852182,246.830184,1.579645
LINE105,0.000000,0.679815,0.000000,-1.385670,0.000000,4.079133
LINE106,0.256016,-0.867720,0.678895,3.330775,0.583195,1.244980
LINE107,90.554359,0.958336,162.138685,3.852182,246.830184,1.579645
LINE108,0.000000,0.954694,0.000000,-1.131403,0.000000,3.799200
LINE109,0.256016,-0.867720,0.678895,3.330775,0.583195,1.244980
LINE110,90.554359,0.958336,162.138685,3.852182,246.830184,1.579645
LINE111,0.000000,0.994972,0.000000,-1.137516,0.000000,3.669463
LINE112,0.256016,-0.867720,0.678895,3.330775,0.583195,1.244980
LINE113,90.554359,0.958336,162.138685,3.852182,246.830184,1.579645
LINE114,0.000000,0.990034,0.000000,-1.140556,0.000000,3.663775
LINE115,0.256016,-0.867720,0.678895,3.330775,0.583195,1.244980
LINE116,0.212111,-0.871024,0.460515,3.332655,0.587119,1.243282
LINE117,90.608826,0.960599,161.739095,3.853595,246.276042,1.580431
LINE118,0.000000,1.006878,0.000000,-1.132178,0.000000,3.656166
LINE119,0.256016,-0.867720,0.678895,3.330775,0.583195,1.244980
LINE120,0.000000,2.220605,0.000000,0.397922,0.000000,-1.560029
LINE121,0.212111,-0.871024,0.460515,3.332655,0.587119,1.243282
LINE122,90.608826,0.960599,161.739095,3.853595,246.276042,1.580431
LINE123,0.000000,0.979570,0.000000,-1.135292,0.000000,3.688960
LINE124,0.256016,-0.867720,0.678895,3.330775,0.583195,1.244980
LINE125,0.000000,2.189366,0.000000,0.577355,0.000000,-1.559286
LINE126,0.212111,-0.871024,0.460515,3.332655,0.587119,1.243282
LINE127,90.608826,0.960599,161.739095,3.853595,246.276042,1.580431
LINE128,0.000000,0.886648,0.000000,-1.164037,0.000000,3.685823
LINE129,0.256016,-0.867720,0.678895,3.330775,0.583195,1.244980
LINE130,0.000000,2.528658,0.000000,0.618569,0.000000,4.703081
LINE131,0.212111,-0.871024,0.000000,2.945657,0.000000,1.603644
LINE132,0.000000,0.663569,0.460515,3.332655,0.587119,1.243282
LINE133,90.608826,0.960599,161.739095,3.853595,246.276042,1.580431
LINE134,0.000000,0.923258,0.000000,-1.223048,0.000000,3.675447
LINE135,0.256016,-0.867720,0.678895,3.330775,0.583195,1.244980
LINE136,0.000000,2.653013,0.000000,0.641037,0.000000,4.703081
LINE137,0.212111,-0.871024,0.000000,2.976819,0.000000,1.605181
LINE138,0.000000,0.672823,0.460515,3.332655,0.587119,1.243282
LINE139,90.608826,0.960599,161.739095,3.853595,246.276042,1.580431
LINE140,0.000000,0.858086,0.000000,-1.228110,0.000000,3.741140
LINE141,0.256016,-0.867720,0.678895,3.330775,0.583195,1.244980
LINE142,0.000000,2.779986,0.000000,0.851126,0.000000,4.700849
LINE143,0.212111,-0.871024,0.000000,2.961041,0.000000,1.602408
LINE144,0.000000,0.680137,0.460515,3.332655,0.587119,1.243282
LINE145,90.608826,0.960599,161.739095,3.853595,246.276042,1.580431
LINE146,0.000000,0.774380,0.000000,-0.920984,0.000000,3.691073
LINE147,0.256016,-0.867720,0.678895,3.330775,0.583195,1.244980
LINE148,0.000000,2.838361,0.000000,0.819222,0.000000,4.687457
LINE149,0.212111,-0.871024,0.000000,2.887979,0.000000,1.611397
LINE150,0.000000,0.601967,0.000000,0.057529,0.587119,1.243282
LINE151,0.000000,2.555915,0.460515,3.332655,0.000000,-1.527095
LINE152,90.608826,0.960599,161.739095,3.853595,246.276042,1.580431
LINE153,0.000000,1.112515,0.000000,4.448064,0.000000,3.989625
LINE154,0.256016,-0.867720,0.678895,3.330775,0.583195,1.244980
LINE155,0.000000,2.813776,0.000000,1.267565,0.000000,4.687457
LINE156,0.212111,-0.871024,0.000000,2.881676,0.000000,1.627478
LINE157,0.000000,0.601985,0.000000,0.053137,0.587119,1.243282
LINE158,0.000000,2.432870,0.460515,3.332655,0.000000,-1.526183
LINE159,90.608826,0.960599,161.739095,3.853595,246.276042,1.580431
LINE160,0.000000,1.463949,0.000000,-0.657106,0.000000,3.279524
LINE161,0.000000,2.943384,0.231917,3.330773,0.000000,-1.556118
LINE162,0.256016,-0.867720,0.446978,3.330775,0.583195,1.244980
LINE163,0.000000,2.721870,0.000000,1.082217,0.000000,4.699956
LINE164,0.212111,-0.871024,0.000000,2.921164,0.000000,1.620476
LINE165,0.000000,0.591119,0.000000,0.054172,0.587119,1.243282
LINE166,0.000000,2.578016,0.460515,3.332655,0.000000,-1.545863
LINE167,90.608826,0.960599,161.739095,3.853595,246.276042,1.580431
LINE168,0.000000,2.886865,0.000000,0.769103,0.000000,0.769103
LINE169,0.000000,3.109133,0.231917,3.330773,0.000000,-1.554790
LINE170,0.256016,-0.867720,0.446978,3.330775,0.583195,1.244980
LINE171,0.000000,2.473160,0.000000,1.267565,0.000000,4.710890
LINE172,0.212111,-0.871024,0.000000,2.892358,0.000000,1.614807
LINE173,0.000000,0.682737,0.000000,0.020804,0.000000,1.276252
LINE174,0.000000,-1.086668,0.000000,0.983689,0.587119,1.243282
LINE175,0.000000,2.600674,0.460515,3.332655,0.000000,-1.562436
LINE176,90.608826,0.960599,161.739095,3.853595,246.276042,1.580431
LINE177,0.000000,0.760604,0.231917,3.330773,0.000000,4.685088
LINE178,0.256016,-0.867720,0.446978,3.330775,0.000000,1.408723
LINE179,0.000000,3.102602,0.000000,3.493958,0.583195,1.244980
LINE180,0.000000,2.736154,0.000000,2.133867,0.000000,-1.564488
LINE181,0.212111,-0.871024,0.000000,2.924110,0.000000,1.623236
LINE182,0.000000,0.687634,0.000000,0.027023,0.000000,1.314357
LINE183,0.000000,-1.042219,0.000000,1.019765,0.587119,1.243282
LINE184,0.000000,2.746741,0.460515,3.332655,0.000000,-1.475995
LINE185,90.608826,0.960599,161.739095,3.853595,246.276042,1.580431
LINE186,0.256016,-0.867720,0.446978,3.330775,0.000000,1.476029
LINE187,0.000000,3.053482,0.000000,3.490068,0.583195,1.244980
LINE188,0.000000,2.653013,0.000000,2.133867,0.000000,-1.569692
LINE189,0.212111,-0.871024,0.000000,2.917840,0.000000,1.619613
LINE190,0.000000,0.778465,0.000000,2.173420,0.000000,4.502124
LINE191,0.000000,0.735671,0.000000,0.039345,0.000000,1.270351
LINE192,0.000000,-0.958145,0.000000,1.059923,0.587119,1.243282
LINE193,0.000000,2.641646,0.460515,3.332655,0.000000,-1.504697
LINE194,90.608826,0.960599,161.739095,3.853595,246.276042,1.580431
LINE195,0.256016,-0.867720,0.446978,3.330775,0.000000,1.478986
LINE196,0.000000,3.254278,0.000000,0.375352,0.185757,1.244979
LINE197,0.000000,3.029380,0.000000,3.492737,0.397438,1.244981
LINE198,0.000000,2.653013,0.000000,0.760466,0.000000,4.703081
LINE199,0.212111,-0.871024,0.000000,2.939257,0.000000,1.609191
LINE200,0.000000,1.847336,0.000000,-0.176811,0.000000,4.134591
LINE201,0.000000,0.326624,0.000000,0.153699,0.000000,1.175837
LINE202,0.000000,-1.174470,0.000000,0.996197,0.587119,1.243282
LINE203,0.000000,2.290440,0.460515,3.332655,0.000000,-1.491728
LINE204,90.608826,0.960599,161.739095,3.853595,246.276042,1.580431
LINE205,0.256016,-0.867720,0.000000,2.783130,0.000000,4.417509
LINE206,0.000000,3.156830,0.446978,3.330775,0.000000,1.477349
LINE207,0.000000,0.567110,0.000000,3.274110,0.185757,1.244979
LINE208,0.000000,2.953809,0.000000,3.698835,0.397438,1.244981
LINE209,0.000000,1.545864,0.000000,0.220047,0.000000,4.687457
LINE210,0.212111,-0.871024,0.000000,2.923596,0.000000,1.608775
LINE211,0.000000,1.028749,0.000000,-0.011920,0.000000,0.806149
LINE212,0.000000,4.616849,0.000000,0.903527,0.587119,1.243282
LINE213,0.000000,2.406491,0.460515,3.332655,0.000000,-1.510260
LINE214,90.608826,0.960599,161.739095,3.853595,246.276042,1.580431
LINE215,0.256016,-0.867720,0.000000,1.607059,0.000000,4.503128
LINE216,0.000000,3.356187,0.446978,3.330775,0.000000,1.770281
LINE217,0.000000,3.508526,0.000000,4.205106,0.397438,1.244981
LINE218,0.000000,3.580308,0.000000,0.000000,0.000000,0.000000
LINE219,0.212111,-0.871024,0.000000,2.950677,0.000000,1.610835
LINE220,0.000000,1.101332,0.000000,-0.141718,0.000000,0.425430
LINE221,0.000000,4.666095,0.000000,0.770401,0.587119,1.243282
LINE222,0.000000,2.379941,0.460515,3.332655,0.000000,-1.501018
LINE223,90.608826,0.960599,161.739095,3.853595,246.276042,1.580431
LINE224,0.256016,-0.867720,0.000000,-0.480563,0.000000,1.563532
LINE225,0.000000,2.882999,0.446978,3.330775,0.000000,1.559430
LINE226,0.000000,4.555499,0.000000,4.202117,0.397438,1.244981
LINE227,0.212111,-0.871024,0.000000,3.033347,0.000000,1.616421
LINE228,0.000000,0.981750,0.000000,-0.136260,0.000000,0.254126
LINE229,0.000000,-1.421880,0.000000,0.838408,0.587119,1.243282
LINE230,0.000000,2.388753,0.460515,3.332655,0.000000,-1.486171
LINE231,90.608826,0.960599,161.739095,3.853595,246.276042,1.580431
LINE232,0.000000,-1.169400,0.446978,3.330775,0.000000,1.673386
LINE233,0.000000,0.148688,0.000000,1.913171,0.000000,3.361472
LINE234,0.000000,-0.883964,0.000000,4.532569,0.397438,1.244981
LINE235,0.212111,-0.871024,0.000000,3.285334,0.000000,1.651491
LINE236,0.000000,0.825118,0.000000,-0.158030,0.000000,0.550358
LINE237,0.000000,-1.220536,0.000000,0.895380,0.587119,1.243282
LINE238,0.000000,2.543130,0.460515,3.332655,0.000000,-1.244333
LINE239,90.608826,0.960599,161.739095,3.853595,246.276042,1.580431
LINE240,0.000000,-0.805337,0.446978,3.330775,0.000000,1.585299
LINE241,0.000000,-1.502598,0.000000,4.178649,0.397438,1.244981
LINE242,0.212111,-0.871024,0.000000,3.627165,0.000000,1.624092
LINE243,0.000000,0.773346,0.000000,-0.657515,0.000000,0.558316
LINE244,0.000000,-0.983086,0.000000,0.786469,0.587119,1.243282
LINE245,0.000000,2.631681,0.460515,3.332655,0.000000,-1.399368
LINE246,90.608826,0.960599,161.739095,3.853595,246.276042,1.580431
LINE247,0.000000,-1.453821,0.240356,3.330775,0.000000,4.675135
LINE248,0.000000,3.028670,0.206622,3.330775,0.000000,-1.413921
LINE249,0.000000,3.318937,0.000000,3.390319,0.397438,1.244981
LINE250,0.212111,-0.871024,0.000000,3.589088,0.000000,1.611518
LINE251,0.000000,0.886864,0.000000,0.245989,0.000000,0.135505
LINE252,0.000000,-0.958041,0.000000,0.834051,0.587119,1.243282
LINE253,0.000000,2.626623,0.460515,3.332655,0.000000,-1.415842
LINE254,0.193771,-0.877688,0.000000,1.970817,0.000000,4.671620
LINE255,90.660235,0.962661,161.739095,3.853595,246.276042,1.580431
LINE256,0.000000,-0.562927,0.000000,-0.562927,0.397438,1.244981
LINE257,0.212111,-0.871024,0.000000,4.581099,0.000000,1.622657
LINE258,0.000000,0.743487,0.000000,-0.151431,0.000000,-0.081747
LINE259,0.000000,-0.927763,0.000000,0.751019,0.587119,1.243282
LINE260,0.000000,2.691315,0.460515,3.332655,0.000000,-1.461268
LINE261,0.193771,-0.877688,0.000000,2.000086,0.000000,4.675267
LINE262,90.660235,0.962661,161.739095,3.853595,246.276042,1.580431
LINE263,0.000000,3.312577,0.000000,0.904643,0.397438,1.244981
LINE264,0.212111,-0.871024,0.000000,0.520026,0.000000,1.712129
LINE265,0.000000,0.602181,0.000000,-0.093621,0.000000,0.935621
LINE266,0.000000,-1.019105,0.000000,0.778066,0.587119,1.243282
LINE267,0.000000,2.165086,0.236595,3.332655,0.000000,1.430376
LINE268,0.000000,1.953024,0.223920,3.332654,0.000000,4.703789
LINE269,0.193771,-0.877688,0.000000,1.664362,0.000000,4.667947
LINE270,0.000000,3.120891,0.000000,3.472555,0.234102,1.238292
LINE271,90.660235,0.962661,161.739095,3.853595,246.055522,1.580751
LINE272,0.212111,-0.871024,0.000000,-1.383472,0.000000,1.648032
LINE273,0.000000,0.571078,0.000000,0.154569,0.000000,1.745665
LINE274,0.000000,4.458923,0.000000,0.743710,0.587119,1.243282
LINE275,0.000000,0.093712,0.236595,3.332655,0.000000,1.944818
LINE276,0.000000,1.930677,0.223920,3.332654,0.000000,-1.386547
LINE277,0.193771,-0.877688,0.000000,1.539293,0.000000,4.664797
LINE278,0.000000,3.023590,0.000000,3.382632,0.234102,1.238292
LINE279,90.660235,0.962661,161.739095,3.853595,246.055522,1.580751
LINE280,0.212111,-0.871024,0.000000,4.482850,0.000000,4.621798
LINE281,0.000000,2.245593,0.000000,4.415405,0.000000,4.191166
LINE282,0.000000,3.744744,0.000000,0.655527,0.587119,1.243282
LINE283,0.000000,0.884927,0.223920,3.332654,0.000000,-0.799030
LINE284,0.193771,-0.877688,0.000000,1.402907,0.000000,4.654688
LINE285,0.000000,3.249941,0.000000,3.304781,0.234102,1.238292
LINE286,91.100171,0.979482,160.404341,3.858325,221.672866,1.620271
LINE287,1.590755,-0.879925,1.536842,3.337336,26.070886,1.238148
LINE288,0.212111,-0.871024,0.000000,1.392980,0.000000,4.456139
LINE289,0.000000,1.678276,0.000000,-0.215531,0.000000,3.275439
LINE290,0.000000,3.092670,0.000000,0.067098,0.378367,1.243283
LINE291,0.000000,-1.288612,0.000000,1.711959,0.208752,1.243281
LINE292,0.000000,0.843043,0.223920,3.332654,0.000000,1.621376
LINE293,0.193771,-0.877688,0.000000,1.420316,0.000000,4.653508
LINE294,0.000000,3.616123,0.000000,3.443538,0.234102,1.238292
LINE295,91.100171,0.979482,160.404341,3.858325,221.672866,1.620271
LINE296,1.590755,-0.879925,1.536842,3.337336,26.070886,1.238148
LINE297,0.000000,2.753339,0.000000,0.102550,0.378367,1.243283
LINE298,0.000000,0.469139,0.000000,0.469139,0.208752,1.243281
LINE299,0.000000,2.330324,0.223920,3.332654,0.000000,1.302896
LINE300,0.193771,-0.877688,0.000000,1.599884,0.000000,4.661502
LINE301,0.000000,3.592207,0.000000,3.372904,0.234102,1.238292
LINE302,91.100171,0.979482,160.404341,3.858325,221.672866,1.620271
LINE303,1.590755,-0.879925,1.536842,3.337336,26.070886,1.238148
LINE304,0.000000,2.533767,0.000000,3.052103,0.378367,1.243283
LINE305,0.000000,1.274063,0.000000,0.063294,0.208752,1.243281
LINE306,0.000000,1.669859,0.223920,3.332654,0.000000,-0.907201
LINE307,0.193771,-0.877688,0.000000,1.529877,0.000000,4.659269
LINE308,0.000000,3.490843,0.000000,3.318842,0.234102,1.238292
LINE309,91.100171,0.979482,160.404341,3.858325,221.672866,1.620271
LINE310,1.590755,-0.879925,1.536842,3.337336,26.070886,1.238148
LINE311,0.000000,2.070714,0.000000,0.569087,0.378367,1.243283
LINE312,0.000000,1.786007,0.000000,0.045800,0.208752,1.243281
LINE313,0.000000,0.476045,0.223920,3.332654,0.000000,-1.313144
LINE314,0.193771,-0.877688,0.000000,1.601208,0.000000,4.668587
LINE315,0.000000,2.776552,0.000000,4.610444,0.234102,1.238292
LINE316,0.450314,-0.882699,0.000000,0.166948,0.000000,4.710995
LINE317,91.230556,0.984210,160.404341,3.858325,221.672866,1.620271
LINE318,1.590755,-0.879925,1.536842,3.337336,26.070886,1.238148
LINE319,0.000000,-0.171710,0.000000,0.361021,0.378367,1.243283
LINE320,0.000000,2.805681,0.000000,-1.192035,0.208752,1.243281
LINE321,0.193771,-0.877688,0.000000,1.273574,0.000000,4.673437
LINE322,0.000000,2.870057,0.000000,-0.188076,0.234102,1.238292
LINE323,0.450314,-0.882699,0.000000,0.202533,0.000000,4.707309
LINE324,91.230556,0.984210,160.404341,3.858325,221.672866,1.620271
LINE325,1.590755,-0.879925,1.536842,3.337336,26.070886,1.238148
LINE326,0.000000,3.321027,0.000000,0.548970,0.208752,1.243281
LINE327,0.193771,-0.877688,0.000000,1.048688,0.000000,4.676598
LINE328,0.000000,3.480188,0.000000,0.467035,0.234102,1.238292
LINE329,0.450314,-0.882699,0.000000,0.194606,0.000000,4.700179
LINE330,0.000000,-0.656082,0.000000,4.094391,227.895715,1.236493
LINE331,91.230556,0.984210,160.404341,3.858325,85.955978,3.070305
LINE332,1.590755,-0.879925,1.536842,3.337336,26.070886,1.238148
LINE333,0.193771,-0.877688,0.000000,0.898229,0.000000,4.663068
LINE334,0.000000,2.355589,0.000000,-0.423983,0.234102,1.238292
LINE335,0.450314,-0.882699,0.000000,0.200813,0.000000,4.698684
LINE336,0.000000,2.864420,0.000000,0.476919,227.895715,1.236493
LINE337,0.000000,1.522258,0.235426,3.340885,0.000000,1.331976
LINE338,91.230556,0.984210,160.199777,3.859052,85.955978,3.070305
LINE339,1.590755,-0.879925,1.536842,3.337336,26.070886,1.238148
LINE340,0.193771,-0.877688,0.000000,0.865789,0.000000,4.654556
LINE341,0.000000,1.247871,0.000000,1.380138,0.234102,1.238292
LINE342,0.218723,-0.882699,0.000000,-0.000205,0.000000,1.565238
LINE343,0.231590,-0.882698,0.000000,0.231926,0.000000,4.697785
LINE344,0.000000,1.513211,0.235426,3.340885,0.000000,1.342760
LINE345,91.230556,0.984210,160.199777,3.859052,85.955978,3.070305
LINE346,1.590755,-0.879925,1.536842,3.337336,26.070886,1.238148
LINE347,0.193771,-0.877688,0.000000,0.255982,0.000000,4.636256
LINE348,0.218723,-0.882699,0.000000,0.881305,0.000000,1.206993
LINE349,0.231590,-0.882698,0.000000,-0.249346,0.000000,-1.497956
LINE350,0.000000,1.272138,0.235426,3.340885,0.000000,1.317178
LINE351,91.230556,0.984210,160.199777,3.859052,85.955978,3.070305
LINE352,1.590755,-0.879925,1.536842,3.337336,26.070886,1.238148
LINE353,0.193771,-0.877688,0.000000,0.970823,0.000000,4.564083
LINE354,0.231590,-0.882698,0.000000,0.148132,0.000000,1.457760
LINE355,0.000000,1.972654,0.235426,3.340885,0.000000,-0.793505
LINE356,91.230556,0.984210,160.199777,3.859052,85.955978,3.070305
LINE357,1.590755,-0.879925,1.536842,3.337336,26.070886,1.238148
LINE358,0.193771,-0.877688,0.000000,0.258798,0.000000,4.037458
LINE359,0.231590,-0.882698,0.000000,-0.317355,0.000000,-1.051632
LINE360,0.000000,2.465446,0.235426,3.340885,0.000000,-1.154847
LINE361,91.230556,0.984210,160.199777,3.859052,85.955978,3.070305
LINE362,1.590755,-0.879925,1.536842,3.337336,26.070886,1.238148
LINE363,0.193771,-0.877688,0.000000,-0.512811,0.000000,4.677416
LINE364,0.231590,-0.882698,0.000000,-1.547399,0.000000,-1.458822
LINE365,0.000000,1.710091,0.235426,3.340885,0.000000,-1.359234
LINE366,91.230556,0.984210,160.199777,3.859052,85.955978,3.070305
LINE367,1.590755,-0.879925,1.536842,3.337336,26.070886,1.238148
LINE368,0.193771,-0.877688,0.000000,-0.188665,0.000000,4.445484
LINE369,0.231590,-0.882698,0.000000,-0.577776,0.000000,-1.465840
LINE370,0.000000,3.289537,0.235426,3.340885,0.000000,-1.234507
LINE371,91.230556,0.984210,160.199777,3.859052,85.955978,3.070305
LINE372,1.590755,-0.879925,1.536842,3.337336,26.070886,1.238148
LINE373,0.193771,-0.877688,0.000000,0.486552,0.000000,4.141165
LINE374,0.231590,-0.882698,0.000000,-0.453744,0.000000,1.543102
LINE375,0.000000,0.242423,0.235426,3.340885,0.000000,-1.437614
LINE376,91.230556,0.984210,160.199777,3.859052,85.955978,3.070305
LINE377,1.590755,-0.879925,1.536842,3.337336,1.470666,1.237571
LINE378,0.000000,2.194120,0.000000,-0.024185,24.600220,1.238183
LINE379,0.193771,-0.877688,0.000000,0.544921,0.000000,4.656659
LINE380,0.231590,-0.882698,0.000000,-0.191462,0.000000,-1.555502
LINE381,0.000000,0.786656,0.235426,3.340885,0.000000,-1.356882
LINE382,91.230556,0.984210,160.199777,3.859052,85.955978,3.070305
LINE383,1.590755,-0.879925,1.536842,3.337336,1.470666,1.237571
LINE384,0.000000,-1.070910,0.000000,3.819466,24.600220,1.238183
LINE385,0.000000,2.189949,0.000000,0.320934,0.000000,4.620050
LINE386,0.193771,-0.877688,0.000000,2.299589,0.000000,1.406565
LINE387,0.231590,-0.882698,0.000000,0.066821,0.000000,1.595332
LINE388,0.000000,2.887611,0.235426,3.340885,0.000000,4.705726
LINE389,91.230556,0.984210,160.199777,3.859052,85.955978,3.070305
LINE390,1.590755,-0.879925,1.536842,3.337336,1.470666,1.237571
LINE391,0.000000,-1.213344,0.000000,3.839757,24.600220,1.238183
LINE392,0.000000,2.203209,0.000000,0.305370,0.000000,4.621947
LINE393,0.000000,3.756031,0.235426,3.340885,0.000000,-1.569842
LINE394,91.230556,0.984210,160.199777,3.859052,85.955978,3.070305
LINE395,0.000000,0.116329,0.000000,0.517372,0.349934,1.237572
LINE396,1.590755,-0.879925,1.536842,3.337336,1.120732,1.237571
LINE397,0.000000,-0.575712,0.000000,3.858616,24.600220,1.238183
LINE398,0.000000,1.717361,0.000000,0.267675,0.000000,4.614376
LINE399,0.000000,3.699618,0.235426,3.340885,0.000000,-1.362038
LINE400,91.230556,0.984210,160.199777,3.859052,85.955978,3.070305
LINE401,0.000000,0.084726,0.000000,0.550733,0.349934,1.237572
LINE402,1.590755,-0.879925,1.536842,3.337336,1.120732,1.237571
LINE403,0.000000,2.724722,0.000000,4.663274,24.600220,1.238183
LINE404,0.000000,2.265481,0.000000,0.106197,0.000000,4.578293
LINE405,0.000000,-1.535947,0.235426,3.340885,0.000000,4.463989
LINE406,91.230556,0.984210,160.199777,3.859052,85.955978,3.070305
LINE407,0.000000,0.389303,0.000000,0.540532,0.349934,1.237572
LINE408,1.590755,-0.879925,1.536842,3.337336,1.120732,1.237571
LINE409,0.000000,-0.094737,0.000000,3.429386,0.000000,2.141536
LINE410,0.000000,2.087097,0.000000,-1.307994,24.600220,1.238183
LINE411,0.000000,1.968321,0.000000,-0.075713,0.000000,4.591369
LINE412,91.230556,0.984210,160.199777,3.859052,85.955978,3.070305
LINE413,0.000000,-0.106366,0.000000,0.740501,0.349934,1.237572
LINE414,1.590755,-0.879925,1.536842,3.337336,1.120732,1.237571
LINE415,0.000000,-0.161653,0.000000,3.378657,0.000000,2.216636
LINE416,0.000000,1.670860,0.000000,-1.246783,24.600220,1.238183
LINE417,0.000000,2.484049,0.000000,-0.218765,0.000000,4.259201
LINE418,91.230556,0.984210,160.199777,3.859052,85.955978,3.070305
LINE419,0.000000,0.159717,0.000000,0.598160,0.349934,1.237572
LINE420,1.590755,-0.879925,1.536842,3.337336,1.120732,1.237571
LINE421,0.000000,-0.086264,0.000000,3.397015,0.000000,2.282203
LINE422,0.000000,1.444923,0.000000,4.690462,24.600220,1.238183
LINE423,0.000000,2.138930,0.000000,-0.308658,0.000000,4.340375
LINE424,91.230556,0.984210,160.199777,3.859052,85.955978,3.070305
LINE425,0.000000,2.939912,0.000000,2.939912,0.000000,-0.145406
LINE426,0.000000,0.590014,0.000000,0.623407,0.349934,1.237572
LINE427,1.590755,-0.879925,1.536842,3.337336,1.120732,1.237571
LINE428,0.000000,-0.194546,0.000000,3.483529,0.000000,2.138865
LINE429,0.000000,3.066652,0.000000,-0.284263,24.600220,1.238183
LINE430,0.000000,2.075799,0.000000,-0.284089,0.000000,4.305328
LINE431,91.230556,0.984210,160.199777,3.859052,85.955978,3.070305
LINE432,0.000000,2.939912,0.000000,2.939912,0.000000,-0.145406
LINE433,0.000000,0.556760,0.000000,0.651866,0.349934,1.237572
LINE434,1.590755,-0.879925,1.536842,3.337336,1.120732,1.237571
LINE435,0.000000,-0.150467,0.000000,3.446575,0.000000,2.341905
LINE436,0.000000,1.848676,0.000000,-0.445294,24.600220,1.238183
LINE437,0.000000,2.147628,0.000000,-0.358029,0.000000,4.387222
LINE438,91.230556,0.984210,160.199777,3.859052,85.955978,3.070305
LINE439,0.000000,-0.653134,0.000000,2.529129,0.000000,-0.714660
LINE440,0.000000,0.661506,0.000000,0.701566,0.349934,1.237572
LINE441,1.590755,-0.879925,1.536842,3.337336,1.120732,1.237571
LINE442,0.000000,-0.239227,0.000000,3.566346,0.000000,2.144445
LINE443,0.000000,3.297406,0.000000,0.173824,24.600220,1.238183
LINE444,0.000000,2.013195,0.000000,-0.308549,0.000000,4.468742
LINE445,91.230556,0.984210,160.199777,3.859052,85.955978,3.070305
LINE446,0.000000,1.462592,0.000000,4.509207,0.000000,-1.429777
LINE447,0.000000,0.657815,0.000000,0.699435,0.349934,1.237572
LINE448,1.590755,-0.879925,1.536842,3.337336,1.120732,1.237571
LINE449,0.000000,-0.317179,0.000000,3.428401,0.000000,2.597150
LINE450,0.000000,1.424686,0.000000,0.511460,24.600220,1.238183
LINE451,0.000000,1.868781,0.000000,-0.366094,0.000000,4.499006
LINE452,91.230556,0.984210,160.199777,3.859052,85.955978,3.070305
LINE453,0.000000,3.321389,0.000000,2.261152,0.000000,-1.510578
LINE454,0.000000,0.530691,0.000000,0.716028,0.349934,1.237572
LINE455,1.590755,-0.879925,1.536842,3.337336,1.120732,1.237571
LINE456,0.000000,-0.360667,0.000000,3.534187,0.000000,2.420095
LINE457,0.000000,-1.344275,0.000000,-0.316815,24.600220,1.238183
LINE458,0.000000,2.091596,0.000000,-0.343309,0.000000,4.654135
LINE459,91.287190,0.986205,160.199777,3.859052,85.955978,3.070305
LINE460,0.000000,0.324455,0.000000,-1.526742,0.000000,1.584500
LINE461,0.190698,-0.887120,0.000000,1.201738,0.000000,4.616100
LINE462,0.000000,0.761400,0.000000,0.721278,0.349934,1.237572
LINE463,1.590755,-0.879925,1.536842,3.337336,1.120732,1.237571
LINE464,0.000000,-0.794396,0.000000,3.275803,0.000000,2.130690
LINE465,0.000000,1.868705,0.000000,-0.326466,0.000000,4.656746
LINE466,91.287190,0.986205,160.199777,3.859052,85.955978,3.070305
LINE467,0.000000,3.003463,0.000000,-0.201681,0.000000,3.237027
LINE468,0.000000,3.193193,0.000000,-1.194777,0.000000,1.693065
LINE469,0.190698,-0.887120,0.000000,1.099198,0.000000,4.562759
LINE470,0.000000,0.904456,0.000000,0.583198,0.349934,1.237572
LINE471,1.590755,-0.879925,1.536842,3.337336,1.120732,1.237571
LINE472,0.000000,-0.459173,0.000000,3.439218,0.000000,2.702848
LINE473,0.000000,1.952015,0.000000,-0.232918,0.000000,4.675853
LINE474,91.287190,0.986205,160.199777,3.859052,85.955978,3.070305
LINE475,0.000000,1.614094,0.000000,4.090919,0.000000,-1.291168
LINE476,0.190698,-0.887120,0.000000,1.278150,0.000000,4.667588
LINE477,0.000000,0.656966,0.000000,0.542478,0.349934,1.237572
LINE478,1.590755,-0.879925,1.536842,3.337336,1.120732,1.237571
LINE479,0.000000,-0.719382,0.000000,3.483322,0.000000,1.893271
LINE480,0.000000,1.752309,0.000000,-0.213357,0.000000,3.307819
LINE481,91.417914,0.990751,160.199777,3.859052,85.955978,3.070305
LINE482,0.000000,4.144466,0.000000,0.194539,0.000000,0.990601
LINE483,0.435308,-0.887328,0.000000,1.005364,0.000000,4.704428
LINE484,0.190698,-0.887120,0.000000,1.426343,0.000000,-1.557542
LINE485,0.000000,0.770519,0.000000,0.734445,0.349934,1.237572
LINE486,1.590755,-0.879925,1.536842,3.337336,1.120732,1.237571
LINE487,0.000000,-0.387695,0.000000,3.502531,0.000000,1.934071
LINE488,0.000000,1.508259,0.000000,-0.881763,0.000000,1.588077
LINE489,91.417914,0.990751,160.199777,3.859052,85.955978,3.070305
LINE490,0.000000,2.520603,0.000000,2.520603,0.000000,-1.550888
LINE491,0.223993,-0.887328,0.000000,1.058739,0.000000,4.704722
LINE492,0.211314,-0.887328,0.000000,3.455833,0.000000,0.047036
LINE493,0.190698,-0.887120,0.000000,0.531590,0.000000,4.576151
LINE494,0.000000,0.371598,0.000000,0.973203,0.349934,1.237572
LINE495,1.590755,-0.879925,1.536842,3.337336,1.120732,1.237571
LINE496,0.000000,-0.365220,0.000000,3.390127,0.000000,1.960827
LINE497,0.000000,2.599660,0.000000,4.689679,0.000000,-0.728790
LINE498,91.417914,0.990751,160.199777,3.859052,85.955978,3.070305
LINE499,0.000000,2.635687,0.000000,0.797330,0.000000,0.797330
LINE500,0.223993,-0.887328,0.000000,1.012304,0.000000,4.679465
LINE501,0.211314,-0.887328,0.000000,3.994493,0.000000,1.620911
LINE502,0.190698,-0.887120,0.000000,0.364662,0.000000,4.556832
LINE503,0.000000,1.845558,0.000000,1.062183,0.349934,1.237572
LINE504,1.590755,-0.879925,1.536842,3.337336,1.120732,1.237571
LINE505,0.000000,-0.371409,0.000000,3.549230,0.000000,1.970520
LINE506,0.000000,0.000000,0.000000,0.000000,0.000000,0.000000
LINE507,91.417914,0.990751,160.199777,3.859052,85.955978,3.070305
LINE508,0.000000,3.870854,0.000000,-0.011648,0.000000,-1.318365
LINE509,0.223993,-0.887328,0.000000,0.725981,0.000000,4.660453
LINE510,0.190698,-0.887120,0.000000,0.693420,0.000000,-1.534882
LINE511,0.000000,1.547759,0.000000,1.580869,0.349934,1.237572
LINE512,0.000000,0.118764,0.144328,3.337338,0.000000,1.616976
LINE513,1.590755,-0.879925,1.392513,3.337336,1.120732,1.237571
LINE514,0.000000,-0.466804,0.000000,3.377785,0.000000,1.949041
LINE515,91.555371,0.995443,160.199777,3.859052,85.955978,3.070305
LINE516,0.000000,2.939912,0.000000,2.939912,0.000000,-0.145406
LINE517,0.450757,-0.887581,0.000000,0.046273,0.000000,1.651645
LINE518,0.223993,-0.887328,0.000000,0.770755,0.000000,4.668188
LINE519,0.190698,-0.887120,0.000000,1.590128,0.000000,0.989849
LINE520,0.000000,0.443343,0.000000,0.398927,0.349934,1.237572
LINE521,0.000000,3.814635,0.144328,3.337338,0.000000,-1.562715
LINE522,1.590755,-0.879925,1.392513,3.337336,1.120732,1.237571
LINE523,0.000000,-0.032323,0.000000,3.369285,0.000000,1.582513
LINE524,91.555371,0.995443,160.199777,3.859052,85.955978,3.070305
LINE525,0.000000,0.615964,0.000000,3.771605,0.000000,0.496950
LINE526,0.450757,-0.887581,0.000000,0.071809,0.000000,1.651641
LINE527,0.223993,-0.887328,0.000000,0.398369,0.000000,-1.560306
LINE528,0.190698,-0.887120,0.000000,2.325458,0.000000,1.427149
LINE529,0.000000,3.323148,0.000000,0.942125,0.349934,1.237572
LINE530,1.590755,-0.879925,1.392513,3.337336,1.120732,1.237571
LINE531,0.000000,-0.174299,0.000000,-1.356478,0.000000,1.629891
LINE532,91.555371,0.995443,160.199777,3.859052,85.955978,3.070305
LINE533,0.000000,2.123153,0.000000,3.955394,0.000000,4.655537
LINE534,0.450757,-0.887581,0.000000,0.043784,0.000000,1.656094
LINE535,0.223993,-0.887328,0.000000,1.902876,0.000000,-1.523610
LINE536,0.190698,-0.887120,0.000000,2.472058,0.000000,1.404085
LINE537,0.000000,0.180755,0.000000,1.977441,0.124027,1.237572
LINE538,0.000000,2.859249,0.000000,2.859249,0.225907,1.237573
LINE539,1.590755,-0.879925,1.392513,3.337336,1.120732,1.237571
LINE540,0.000000,-0.758536,0.000000,3.098964,0.000000,1.522881
LINE541,91.555371,0.995443,160.199777,3.859052,85.955978,3.070305
LINE542,0.000000,1.394110,0.000000,1.288566,0.000000,4.605444
LINE543,0.450757,-0.887581,0.000000,-0.019733,0.000000,1.644904
LINE544,0.223993,-0.887328,0.000000,4.022882,0.000000,1.286198
LINE545,0.190698,-0.887120,0.000000,2.400601,0.000000,1.435151
LINE546,0.000000,-0.847060,0.000000,3.130273,0.124027,1.237572
LINE547,1.590755,-0.879925,1.392513,3.337336,1.120732,1.237571
LINE548,0.000000,-1.456166,0.000000,3.411307,0.000000,1.452128
LINE549,91.555371,0.995443,160.199777,3.859052,85.955978,3.070305
LINE550,0.000000,2.024951,0.000000,3.421851,0.000000,2.101491
LINE551,0.223272,-0.887581,0.000000,-0.280604,0.000000,1.626896
LINE552,0.227485,-0.887581,0.000000,0.584757,0.000000,4.703594
LINE553,0.223993,-0.887328,0.000000,-0.028972,0.000000,4.695537
LINE554,0.190698,-0.887120,0.000000,2.557075,0.000000,1.501179
LINE555,0.000000,1.195878,0.000000,3.047524,0.124027,1.237572
LINE556,1.590755,-0.879925,1.392513,3.337336,1.120732,1.237571
LINE557,0.000000,4.001498,0.000000,0.704947,0.000000,1.719326
LINE558,91.555371,0.995443,160.199777,3.859052,85.955978,3.070305
LINE559,0.000000,3.633156,0.000000,-0.260881,0.000000,1.397460
LINE560,0.223272,-0.887581,0.000000,-0.027326,0.000000,1.614876
LINE561,0.227485,-0.887581,0.000000,2.350217,0.000000,-1.551988
LINE562,0.223993,-0.887328,0.000000,3.208288,0.000000,1.355835
LINE563,0.190698,-0.887120,0.000000,2.887193,0.000000,1.554608
LINE564,1.590755,-0.879925,1.392513,3.337336,1.120732,1.237571
LINE565,0.000000,-0.986583,0.000000,0.142941,0.000000,4.629285
LINE566,91.555371,0.995443,159.812592,3.860441,85.955978,3.070305
LINE567,0.000000,0.086375,0.000000,3.570893,0.000000,2.648880
LINE568,0.000000,-0.539429,0.446418,3.338735,0.000000,-1.499406
LINE569,0.223272,-0.887581,0.000000,3.800327,0.000000,1.728045
LINE570,0.190698,-0.887120,0.000000,2.071441,0.000000,4.626270
LINE571,1.590755,-0.879925,1.392513,3.337336,1.120732,1.237571
LINE572,91.555371,0.995443,159.812592,3.860441,85.955978,3.070305
LINE573,0.000000,0.507686,0.000000,3.206823,0.000000,-1.568721
LINE574,0.000000,-0.540296,0.446418,3.338735,0.000000,-1.502818
LINE575,0.223272,-0.887581,0.000000,-1.263259,0.000000,1.660287
LINE576,0.190698,-0.887120,0.000000,0.892639,0.000000,4.661906
LINE577,1.590755,-0.879925,1.392513,3.337336,1.120732,1.237571
LINE578,91.555371,0.995443,159.812592,3.860441,85.955978,3.070305
LINE579,0.000000,3.303891,0.000000,0.364031,0.000000,4.558652
LINE580,0.000000,1.212664,0.000000,0.387146,0.000000,4.168816
LINE581,0.000000,-0.464353,0.446418,3.338735,0.000000,-1.504020
LINE582,0.223272,-0.887581,0.000000,0.073704,0.000000,3.687170
LINE583,0.190698,-0.887120,0.000000,1.197847,0.000000,4.662388
LINE584,0.000000,-0.623041,0.123105,3.337337,0.000000,1.620182
LINE585,1.590755,-0.879925,1.269409,3.337335,1.120732,1.237571
LINE586,91.555371,0.995443,159.812592,3.860441,85.955978,3.070305
LINE587,0.000000,1.269447,0.000000,4.644743,0.000000,4.175015
LINE588,0.000000,1.027116,0.000000,0.315695,0.000000,4.320500
LINE589,0.000000,0.200688,0.446418,3.338735,0.000000,-1.525616
LINE590,0.223272,-0.887581,0.000000,-0.529125,0.000000,4.246874
LINE591,0.190698,-0.887120,0.000000,2.335590,0.000000,4.700565
LINE592,0.000000,-0.564581,0.123105,3.337337,0.000000,1.610555
LINE593,1.590755,-0.879925,1.269409,3.337335,1.120732,1.237571
LINE594,91.555371,0.995443,159.812592,3.860441,86.032812,3.073123
LINE595,0.000000,2.712734,0.000000,2.330192,0.254180,1.193834
LINE596,0.000000,1.435406,0.000000,0.326927,0.000000,4.152288
LINE597,0.000000,0.019144,0.446418,3.338735,0.000000,-1.526806
LINE598,0.223272,-0.887581,0.000000,1.058634,0.000000,1.616644
LINE599,0.190698,-0.887120,0.000000,3.136082,0.000000,-1.515241
LINE600,0.000000,-0.649255,0.123105,3.337337,0.000000,1.597658
LINE601,0.000000,2.792021,0.000000,1.047196,0.248060,1.237571
LINE602,1.590755,-0.879925,1.269409,3.337335,0.872672,1.237570
LINE603,91.555371,0.995443,159.812592,3.860441,86.032812,3.073123
LINE604,0.000000,0.750048,0.000000,0.750048,0.000000,1.711816
LINE605,0.000000,1.910612,0.000000,2.800957,0.000000,4.431601
LINE606,0.000000,-0.259111,0.000000,3.358743,0.254180,1.193834
LINE607,0.000000,-0.061585,0.000000,2.103538,0.000000,4.437997
LINE608,0.000000,0.409226,0.000000,0.509650,0.000000,3.931988
LINE609,0.000000,-0.030276,0.446418,3.338735,0.000000,-1.524918
LINE610,0.223272,-0.887581,0.000000,-0.520939,0.000000,1.575936
LINE611,0.190698,-0.887120,0.000000,-0.219682,0.000000,4.679036
LINE612,0.000000,-0.447453,0.123105,3.337337,0.000000,1.566634
LINE613,0.000000,3.241665,0.000000,0.615100,0.248060,1.237571
LINE614,1.590755,-0.879925,1.269409,3.337335,0.872672,1.237570
LINE615,91.555371,0.995443,159.812592,3.860441,86.032812,3.073123
LINE616,0.000000,1.574511,0.000000,4.176053,0.000000,-1.354037
LINE617,0.000000,-0.768715,0.000000,-0.768715,0.000000,-1.260425
LINE618,0.000000,-0.626225,0.000000,-0.842499,0.254180,1.193834
LINE619,0.000000,0.604964,0.000000,1.166701,0.000000,4.565777
LINE620,0.000000,-0.079244,0.446418,3.338735,0.000000,-1.524025
LINE621,0.190698,-0.887120,0.000000,3.625445,0.000000,-1.214391
LINE622,0.000000,-0.365058,0.123105,3.337337,0.000000,1.570428
LINE623,0.000000,-0.322791,0.220745,3.337333,0.000000,1.555289
LINE624,1.590755,-0.879925,1.048663,3.337336,0.872672,1.237570
LINE625,91.555371,0.995443,159.812592,3.860441,86.032812,3.073123
LINE626,0.000000,0.159446,0.000000,1.813963,0.000000,4.317531
LINE627,0.000000,-0.064631,0.446418,3.338735,0.000000,-1.526574
LINE628,0.190698,-0.887120,0.000000,0.003072,0.000000,1.504753
LINE629,0.000000,-0.501976,0.123105,3.337337,0.000000,1.568168
LINE630,0.000000,-0.163098,0.220745,3.337333,0.000000,1.562495
LINE631,1.590755,-0.879925,1.048663,3.337336,0.872672,1.237570
LINE632,61.038113,0.995151,156.477481,3.683592,57.356334,3.072831
LINE633,0.000000,0.374571,0.000000,0.977397,0.000000,3.805140
LINE634,0.000000,-0.298348,0.446418,3.338735,0.000000,-1.527847
LINE635,0.000000,-0.376617,0.123105,3.337337,0.000000,1.574010
LINE636,0.000000,-1.208559,0.220745,3.337333,0.000000,1.576541
LINE637,1.590755,-0.879925,1.048663,3.337336,0.872672,1.237570
LINE638,30.519872,0.994755,158.144946,3.505100,28.678934,3.072435
LINE639,0.000000,0.581071,0.000000,0.848704,0.000000,4.195146
LINE640,0.000000,-0.576886,0.446418,3.338735,0.000000,-1.527978
LINE641,0.000000,-0.303495,0.123105,3.337337,0.000000,1.578594
LINE642,0.000000,-0.010491,0.220745,3.337333,0.000000,1.636572
LINE643,1.590755,-0.879925,1.048663,3.337336,0.872672,1.237570
LINE644,0.000000,0.581152,0.000000,3.304364,0.000000,2.162808
LINE645,0.000000,-0.208081,0.446418,3.338735,0.000000,-1.539083
LINE646,0.000000,-0.382966,0.123105,3.337337,0.000000,1.584298
LINE647,0.000000,0.062938,0.220745,3.337333,0.000000,1.680134
LINE648,1.590755,-0.879925,1.048663,3.337336,0.872672,1.237570
LINE649,0.000000,2.771014,0.000000,0.111846,0.000000,2.098231
LINE650,0.000000,2.319369,0.446418,3.338735,0.000000,-1.552772
LINE651,0.000000,-0.264793,0.123105,3.337337,0.000000,1.578810
LINE652,0.000000,0.126070,0.220745,3.337333,0.000000,1.804578
LINE653,1.590755,-0.879925,1.048663,3.337336,0.872672,1.237570
LINE654,0.000000,2.776719,0.000000,0.090786,0.000000,1.741330
LINE655,0.000000,3.320158,0.200888,3.338735,0.000000,4.646349
LINE656,0.000000,-0.785280,0.245530,3.338735,0.000000,1.468985
LINE657,0.000000,-0.300981,0.123105,3.337337,0.000000,1.569075
LINE658,0.000000,-0.594221,0.220745,3.337333,0.000000,1.856262
LINE659,1.590755,-0.879925,1.048663,3.337336,0.872672,1.237570
LINE660,0.000000,2.500596,0.000000,0.283480,0.000000,1.286101
LINE661,0.000000,3.421962,0.200888,3.338735,0.000000,-1.543305
LINE662,0.000000,0.295466,0.245530,3.338735,0.000000,1.413909
LINE663,0.000000,-0.216762,0.123105,3.337337,0.000000,1.559191
LINE664,0.000000,-0.488875,0.220745,3.337333,0.000000,1.769902
LINE665,1.590755,-0.879925,1.048663,3.337336,0.872672,1.237570
LINE666,0.000000,2.447871,0.000000,0.498430,0.000000,1.808352
LINE667,0.000000,0.452601,0.200888,3.338735,0.000000,4.661586
LINE668,0.000000,-0.273580,0.245530,3.338735,0.000000,1.026902
LINE669,0.000000,-0.308151,0.123105,3.337337,0.000000,1.554337
LINE670,0.000000,0.691237,0.220745,3.337333,0.000000,1.757657
LINE671,0.696480,-0.879940,0.000000,0.966541,0.000000,-1.561939
LINE672,0.894275,-0.879914,1.048663,3.337336,0.872672,1.237570
LINE673,0.000000,1.130894,0.000000,0.197290,0.000000,3.010794
LINE674,0.000000,3.199315,0.200888,3.338735,0.000000,-0.665660
LINE675,0.000000,1.508128,0.245530,3.338735,0.000000,4.673237
LINE676,0.000000,-0.353136,0.123105,3.337337,0.000000,1.554452
LINE677,0.000000,0.243899,0.220745,3.337333,0.000000,1.800617
LINE678,0.696480,-0.879940,0.000000,1.116074,0.000000,4.687451
LINE679,0.894275,-0.879914,1.048663,3.337336,0.872672,1.237570
LINE680,0.000000,3.060603,0.000000,3.060603,0.000000,3.237027
LINE681,0.000000,2.583564,0.200888,3.338735,0.000000,-1.330374
LINE682,0.000000,-0.347419,0.123105,3.337337,0.000000,1.548616
LINE683,0.000000,3.752507,0.220745,3.337333,0.000000,2.508995
LINE684,0.696480,-0.879940,0.000000,1.145192,0.000000,4.606095
LINE685,0.894275,-0.879914,1.048663,3.337336,0.872672,1.237570
LINE686,0.000000,-0.246080,0.123105,3.337337,0.000000,1.554785
LINE687,0.000000,-0.747484,0.220745,3.337333,0.000000,-1.456883
LINE688,0.696480,-0.879940,0.000000,1.051005,0.000000,4.592394
LINE689,0.000000,1.048055,0.000000,4.173781,0.451834,1.237574
LINE690,0.894275,-0.879914,1.048663,3.337336,0.420838,1.237566
LINE691,0.000000,-0.154774,0.123105,3.337337,0.000000,1.558552
LINE692,0.696480,-0.879940,0.000000,1.166811,0.000000,4.637988
LINE693,0.000000,1.073372,0.000000,4.197724,0.239207,1.237574
LINE694,0.000000,3.676226,0.000000,3.599729,0.212628,1.237574
LINE695,0.000000,-0.796921,0.182545,3.337330,0.000000,-1.287433
LINE696,0.894275,-0.879914,0.866118,3.337337,0.420838,1.237566
LINE697,0.000000,-0.362431,0.123105,3.337337,0.000000,1.549471
LINE698,0.696480,-0.879940,0.000000,0.922868,0.000000,4.443055
LINE699,0.000000,1.524384,0.000000,4.207111,0.239207,1.237574
LINE700,0.000000,1.364662,0.000000,-0.471483,0.212628,1.237574
LINE701,0.000000,3.857427,0.182545,3.337330,0.000000,4.664535
LINE702,0.894275,-0.879914,0.866118,3.337337,0.420838,1.237566
LINE703,0.000000,-0.292444,0.123105,3.337337,0.000000,1.552913
LINE704,0.696480,-0.879940,0.000000,0.856774,0.000000,4.614239
LINE705,0.000000,1.508268,0.000000,4.131616,0.239207,1.237574
LINE706,0.894275,-0.879914,0.866118,3.337337,0.420838,1.237566
LINE707,0.000000,2.840722,0.000000,2.353634,0.000000,4.269977
LINE708,0.000000,-0.273262,0.123105,3.337337,0.000000,1.552620
LINE709,0.696480,-0.879940,0.000000,0.895696,0.000000,4.591011
LINE710,0.000000,4.003930,0.000000,3.942137,0.239207,1.237574
LINE711,0.460046,-0.879901,0.866118,3.337337,0.420838,1.237566
LINE712,0.434230,-0.879929,0.000000,1.428675,0.000000,4.650924
LINE713,0.000000,2.768311,0.000000,2.156788,0.000000,4.334528
LINE714,0.000000,-0.410245,0.123105,3.337337,0.000000,1.552647
LINE715,0.696480,-0.879940,0.000000,0.889455,0.000000,4.596075
LINE716,0.000000,3.416509,0.000000,4.204446,0.239207,1.237574
LINE717,0.460046,-0.879901,0.866118,3.337337,0.420838,1.237566
LINE718,0.434230,-0.879929,0.000000,1.308734,0.000000,4.647810
LINE719,0.000000,2.758823,0.000000,2.454386,0.000000,4.358825
LINE720,0.000000,-0.455414,0.123105,3.337337,0.000000,1.562879
LINE721,0.696480,-0.879940,0.000000,0.856780,0.000000,4.602399
LINE722,0.000000,3.151695,0.000000,-1.001681,0.239207,1.237574
LINE723,0.460046,-0.879901,0.420335,3.337337,0.420838,1.237566
LINE724,0.000000,-0.189232,0.445783,3.337338,0.000000,2.671422
LINE725,0.434230,-0.879929,0.000000,1.527486,0.000000,4.665785
LINE726,0.000000,3.083907,0.000000,2.545836,0.000000,4.191004
LINE727,0.000000,-0.533012,0.123105,3.337337,0.000000,1.559628
LINE728,0.696480,-0.879940,0.000000,0.840910,0.000000,4.552545
LINE729,0.000000,3.449677,0.000000,-1.226502,0.239207,1.237574
LINE730,0.460046,-0.879901,0.420335,3.337337,0.420838,1.237566
LINE731,0.000000,-0.196799,0.445783,3.337338,0.000000,3.658531
LINE732,0.434230,-0.879929,0.000000,2.459129,0.000000,4.614324
LINE733,0.000000,2.709695,0.000000,2.486753,0.000000,4.333754
LINE734,0.000000,-0.556974,0.123105,3.337337,0.000000,1.524613
LINE735,0.696480,-0.879940,0.000000,0.728971,0.000000,4.605107
LINE736,0.000000,3.676671,0.000000,-0.195508,0.239207,1.237574
LINE737,0.460046,-0.879901,0.420335,3.337337,0.420838,1.237566
LINE738,0.000000,-0.198276,0.445783,3.337338,0.000000,3.319097
LINE739,0.434230,-0.879929,0.000000,2.424868,0.000000,4.644821
LINE740,0.000000,3.063374,0.000000,2.714208,0.000000,3.775482
LINE741,0.000000,-1.224353,0.123105,3.337337,0.000000,1.510778
LINE742,0.696480,-0.879940,0.000000,0.719486,0.000000,4.521455
LINE743,0.000000,3.549853,0.000000,4.356064,0.239207,1.237574
LINE744,0.460046,-0.879901,0.420335,3.337337,0.420838,1.237566
LINE745,0.000000,2.732118,0.220769,3.337338,0.000000,1.490317
LINE746,0.000000,-0.294061,0.225014,3.337338,0.000000,-1.507656
LINE747,0.434230,-0.879929,0.000000,1.472333,0.000000,4.494967
LINE748,0.000000,2.768051,0.000000,2.824819,0.000000,4.190284
LINE749,0.000000,-0.462291,0.123105,3.337337,0.000000,1.518880
LINE750,0.696480,-0.879940,0.000000,0.726593,0.000000,4.483173
LINE751,0.000000,3.607848,0.000000,4.021267,0.239207,1.237574
LINE752,0.460046,-0.879901,0.420335,3.337337,0.000000,1.552230
LINE753,0.000000,-0.707216,0.000000,4.061319,0.420838,1.237566
LINE754,0.000000,-0.910133,0.220769,3.337338,0.000000,1.528880
LINE755,0.000000,-0.201578,0.225014,3.337338,0.000000,4.708678
LINE756,0.434230,-0.879929,0.000000,2.016763,0.000000,4.606955
LINE757,0.000000,2.648572,0.000000,2.332734,0.000000,3.947958
LINE758,0.000000,1.724933,0.123105,3.337337,0.000000,4.660691
LINE759,0.696480,-0.879940,0.000000,0.649358,0.000000,4.529431
LINE760,0.000000,0.265678,0.000000,2.789685,0.239207,1.237574
LINE761,0.460046,-0.879901,0.420335,3.337337,0.000000,1.581497
LINE762,0.000000,-0.706268,0.000000,4.067195,0.420838,1.237566
LINE763,0.000000,-0.764885,0.225014,3.337338,0.000000,1.634320
LINE764,0.434230,-0.879929,0.000000,2.249206,0.000000,4.585810
LINE765,0.000000,2.797635,0.000000,2.283240,0.000000,4.122049
LINE766,0.000000,2.192765,0.123105,3.337337,0.000000,4.626269
LINE767,0.696480,-0.879940,0.000000,0.725541,0.000000,4.150700
LINE768,0.000000,-0.815789,0.000000,4.612978,0.239207,1.237574
LINE769,0.460046,-0.879901,0.420335,3.337337,0.000000,1.563864
LINE770,0.000000,-0.455971,0.000000,4.135712,0.221494,1.237567
LINE771,0.000000,-0.755331,0.000000,3.956383,0.199344,1.237566
LINE772,0.000000,0.196104,0.225014,3.337338,0.000000,4.359298
LINE773,0.434230,-0.879929,0.000000,2.371428,0.000000,4.587792
LINE774,0.000000,2.214217,0.000000,0.755246,0.000000,4.447334
LINE775,0.000000,-0.186571,0.123105,3.337337,0.000000,4.499150
LINE776,0.696480,-0.879940,0.000000,0.739203,0.000000,4.383497
LINE777,0.000000,-0.036886,0.000000,2.965595,0.239207,1.237574
LINE778,0.460046,-0.879901,0.420335,3.337337,0.000000,1.501065
LINE779,0.000000,4.202843,0.000000,2.757085,0.221494,1.237567
LINE780,0.000000,-0.815898,0.000000,4.163650,0.199344,1.237566
LINE781,0.000000,1.296765,0.225014,3.337338,0.000000,4.411861
LINE782,0.434230,-0.879929,0.000000,2.536155,0.000000,4.608850
LINE783,0.000000,2.354550,0.000000,0.006838,0.000000,4.549642
LINE784,0.000000,2.115670,0.123105,3.337337,0.000000,4.656520
LINE785,0.696480,-0.879940,0.000000,0.757825,0.000000,4.411357
LINE786,0.460046,-0.879901,0.420335,3.337337,0.000000,1.488444
LINE787,0.000000,-0.780657,0.000000,3.986176,0.199344,1.237566
LINE788,0.000000,3.899588,0.225014,3.337338,0.000000,2.030442
LINE789,0.434230,-0.879929,0.000000,2.598817,0.000000,4.594608
LINE790,0.000000,2.084741,0.000000,-0.166888,0.000000,2.365314
LINE791,0.429925,-0.879940,0.000000,0.701260,0.000000,4.023384
LINE792,0.266554,-0.879939,0.000000,-0.924990,0.000000,-1.415797
LINE793,0.460046,-0.879901,0.420335,3.337337,0.000000,1.474107
LINE794,0.000000,-0.739784,0.000000,4.192846,0.199344,1.237566
LINE795,0.000000,1.923840,0.225014,3.337338,0.000000,1.611632
LINE796,0.434230,-0.879929,0.000000,2.433677,0.000000,4.553846
LINE797,0.000000,2.182612,0.000000,-0.919222,0.000000,2.604881
LINE798,0.429925,-0.879940,0.000000,0.684198,0.000000,1.718489
LINE799,0.266554,-0.879939,0.000000,3.442725,0.000000,1.505015
LINE800,0.460046,-0.879901,0.000000,2.962988,0.000000,4.151502
LINE801,0.000000,2.058563,0.420335,3.337337,0.000000,1.170983
LINE802,0.000000,-0.966242,0.000000,3.617864,0.199344,1.237566
LINE803,0.000000,2.397681,0.225014,3.337338,0.000000,1.607182
LINE804,0.434230,-0.879929,0.000000,2.534926,0.000000,4.533287
LINE805,0.000000,2.629258,0.000000,1.790894,0.000000,-1.494711
LINE806,0.429925,-0.879940,0.000000,0.711387,0.000000,4.420980
LINE807,0.266554,-0.879939,0.000000,3.932817,0.000000,-1.489718
LINE808,0.460046,-0.879901,0.000000,2.055566,0.000000,4.360141
LINE809,0.000000,2.144572,0.420335,3.337337,0.000000,1.141912
LINE810,0.000000,3.004155,0.000000,-0.201681,0.000000,3.164359
LINE811,0.000000,-0.563311,0.000000,2.941105,0.199344,1.237566
LINE812,0.000000,-0.240002,0.225014,3.337338,0.000000,-1.481155
LINE813,0.434230,-0.879929,0.000000,2.471551,0.000000,4.619486
LINE814,0.000000,-0.869979,0.000000,2.818053,0.000000,-1.329182
LINE815,0.429925,-0.879940,0.000000,0.682726,0.000000,1.744641
LINE816,0.266554,-0.879939,0.000000,-1.329998,0.000000,1.567966
LINE817,0.460046,-0.879901,0.000000,2.661264,0.000000,4.163891
LINE818,0.000000,1.978056,0.420335,3.337337,0.000000,1.264581
LINE819,0.000000,0.156989,0.000000,4.234791,0.000000,1.931221
LINE820,0.000000,3.395842,0.000000,-0.278352,0.199344,1.237566
LINE821,0.434230,-0.879929,0.000000,2.551199,0.000000,4.652751
LINE822,0.000000,3.558735,0.000000,1.059129,0.000000,-0.952723
LINE823,0.429925,-0.879940,0.000000,0.747151,0.000000,1.627337
LINE824,0.460046,-0.879901,0.000000,1.496161,0.000000,4.526643
LINE825,0.000000,2.036593,0.420335,3.337337,0.000000,1.361160
LINE826,0.000000,-0.201681,0.000000,3.016197,0.000000,3.027175
LINE827,0.000000,-0.213682,0.000000,-0.919445,0.199344,1.237566
LINE828,0.434230,-0.879929,0.000000,2.653962,0.000000,4.664805
LINE829,0.000000,4.105926,0.000000,2.046207,0.000000,0.332629
LINE830,0.429925,-0.879940,0.000000,0.641339,0.000000,1.575654
LINE831,0.460046,-0.879901,0.000000,0.960723,0.000000,4.659220
LINE832,0.000000,1.766553,0.420335,3.337337,0.000000,1.477468
LINE833,0.000000,3.693458,0.000000,-0.753617,0.000000,0.696378
LINE834,0.000000,2.493652,0.000000,3.336981,0.199344,1.237566
LINE835,0.434230,-0.879929,0.000000,2.714513,0.000000,4.652293
LINE836,0.429925,-0.879940,0.000000,0.217020,0.000000,1.567350
LINE837,0.460046,-0.879901,0.000000,0.691375,0.000000,4.623026
LINE838,0.000000,1.851614,0.420335,3.337337,0.000000,1.593352
LINE839,0.000000,1.395167,0.000000,1.127932,0.000000,2.721767
LINE840,0.434230,-0.879929,0.000000,2.762172,0.000000,4.647665
LINE841,0.429925,-0.879940,0.000000,0.114885,0.000000,1.535504
LINE842,0.460046,-0.879901,0.000000,0.623508,0.000000,4.663734
LINE843,0.000000,1.000435,0.420335,3.337337,0.000000,1.578213
LINE844,0.000000,2.135920,0.000000,3.440884,0.000000,1.609235
LINE845,0.000000,2.939912,0.000000,-1.136596,0.000000,1.312690
LINE846,0.434230,-0.879929,0.000000,2.821623,0.000000,4.646515
LINE847,0.429925,-0.879940,0.000000,4.429575,0.000000,1.580302
LINE848,0.460046,-0.879901,0.000000,0.671107,0.000000,4.681622
LINE849,0.000000,0.915275,0.420335,3.337337,0.000000,1.584350
LINE850,0.000000,1.816503,0.000000,3.543667,0.000000,1.638405
LINE851,0.000000,0.776319,0.000000,3.122165,0.000000,1.605682
LINE852,0.434230,-0.879929,0.000000,2.508126,0.000000,4.624059
LINE853,0.429925,-0.879940,0.000000,4.448469,0.000000,1.797478
LINE854,0.460046,-0.879901,0.000000,0.781123,0.000000,4.680577
LINE855,0.000000,0.765463,0.420335,3.337337,0.000000,1.563239
LINE856,0.000000,1.815796,0.000000,3.634204,0.000000,1.807428
LINE857,0.000000,1.557429,0.000000,4.444751,0.000000,3.509226
LINE858,0.434230,-0.879929,0.000000,2.836712,0.000000,4.690873
LINE859,0.197765,-0.879941,0.000000,-0.127487,0.000000,4.486024
LINE860,0.232160,-0.879939,0.000000,0.115610,0.000000,1.591884
LINE861,0.460046,-0.879901,0.000000,0.781338,0.000000,4.684638
LINE862,0.000000,0.931940,0.420335,3.337337,0.000000,1.563751
LINE863,0.000000,2.008923,0.000000,3.852273,0.000000,2.102003
LINE864,0.000000,-1.387264,0.000000,0.874211,0.000000,0.523449
LINE865,0.434230,-0.879929,0.000000,2.700884,0.000000,4.685727
LINE866,0.460046,-0.879901,0.000000,0.771415,0.000000,4.681329
LINE867,0.000000,0.396129,0.420335,3.337337,0.000000,1.526711
LINE868,0.000000,2.376330,0.000000,3.714763,0.000000,4.155904
LINE869,0.000000,3.573545,0.000000,3.573545,0.000000,1.473176
LINE870,0.434230,-0.879929,0.000000,2.605910,0.000000,4.680095
LINE871,0.460046,-0.879901,0.000000,0.800717,0.000000,4.680438
LINE872,0.000000,1.503278,0.199553,3.337337,0.000000,1.596755
LINE873,0.000000,4.644870,0.220782,3.337336,0.000000,-0.067519
LINE874,0.000000,2.728830,0.000000,3.492736,0.000000,4.189653
LINE875,0.000000,2.379200,0.000000,2.992856,0.000000,2.999081
LINE876,0.434230,-0.879929,0.000000,1.973053,0.000000,4.614192
LINE877,0.460046,-0.879901,0.000000,0.830073,0.000000,4.680255
LINE878,0.000000,3.074074,0.199553,3.337337,0.000000,1.550118
LINE879,0.000000,-0.852917,0.220782,3.337336,0.000000,-0.067519
LINE880,0.000000,3.666554,0.000000,-0.455674,0.000000,1.600570
LINE881,0.000000,3.733798,0.000000,3.733798,0.000000,4.539153
LINE882,0.434230,-0.879929,0.000000,1.942626,0.000000,4.695296
LINE883,0.460046,-0.879901,0.000000,0.886334,0.000000,4.681384
LINE884,0.000000,4.644870,0.199553,3.337337,0.000000,4.644870
LINE885,0.000000,0.000000,0.220782,3.337336,0.000000,4.660494
LINE886,0.434230,-0.879929,0.000000,0.460714,0.000000,4.662710
LINE887,0.236472,-0.879900,0.000000,0.918301,0.000000,4.654071
LINE888,0.223573,-0.879901,0.000000,2.976870,0.000000,1.127911
LINE889,0.000000,-0.067519,0.199553,3.337337,0.000000,-0.067519
LINE890,0.434230,-0.879929,0.000000,3.079692,0.000000,4.703489
LINE891,0.236472,-0.879900,0.000000,1.110747,0.000000,4.657962
LINE892,0.223573,-0.879901,0.000000,3.602578,0.000000,1.427553
LINE893,0.000000,-0.067519,0.199553,3.337337,0.000000,-1.560348
LINE894,0.206367,-0.879928,0.000000,0.116687,0.000000,4.672312
LINE895,0.227862,-0.879929,0.000000,3.072486,0.000000,3.233614
LINE896,0.236472,-0.879900,0.000000,1.080525,0.000000,4.649573
LINE897,0.223573,-0.879901,0.000000,3.327670,0.000000,1.647701
LINE898,0.000000,0.000000,0.199553,3.337337,0.000000,-0.067519
LINE899,0.206367,-0.879928,0.000000,-0.341503,0.000000,-1.527841
LINE900,0.236472,-0.879900,0.000000,1.122122,0.000000,4.502488
LINE901,0.236472,-0.879900,0.000000,2.288146,0.000000,4.655052
LINE902,0.236472,-0.879900,0.000000,3.060432,0.000000,-1.415105
LINE903,0.236472,-0.879900,0.000000,2.422413,0.000000,1.513532
LINE904,0.236472,-0.879900,0.000000,3.265391,0.000000,4.515726
LINE905,0.236472,-0.879900,0.000000,4.228954,0.000000,1.371836
